       6
 Time:     0.00, Trajectory:1
 C      -0.636393322     -0.003306829     -0.038211889
 C       0.652630068      0.005810895      0.045011288
 H       1.113035441      0.122198669      1.116439110
 H       1.139315971     -0.214367587     -0.845437915
 H      -1.464589055      0.023629352      0.776612593
 H      -0.981601571      0.038677036     -1.129977580
       6
 Time:    20.00, Trajectory:1
 C      -0.639220513     -0.004892352     -0.043056617
 C       0.653728023      0.005747703      0.048900740
 H       1.118247795      0.124108744      1.099475740
 H       1.166204916     -0.212369767     -0.853232101
 H      -1.466182396      0.031793240      0.797913413
 H      -0.991358715      0.046389844     -1.115057537
       6
 Time:    40.00, Trajectory:1
 C      -0.644155617     -0.006358317     -0.048096586
 C       0.656355110      0.005651644      0.053549661
 H       1.123232071      0.128359746      1.076230054
 H       1.196229517     -0.213477489     -0.860489723
 H      -1.462626955      0.036687105      0.814296292
 H      -1.002226830      0.057096992     -1.096244533
       6
 Time:    60.00, Trajectory:1
 C      -0.651044040     -0.007700608     -0.053184204
 C       0.660459494      0.005487377      0.058700647
 H       1.128265992      0.134997430      1.048022159
 H       1.228000256     -0.217205428     -0.865613435
 H      -1.453802559      0.038295510      0.825317511
 H      -1.014447417      0.070657541     -1.074694565
       6
 Time:    80.00, Trajectory:1
 C      -0.659638870     -0.008919731     -0.058153885
 C       0.665902111      0.005216975      0.064063856
 H       1.133882125      0.144155739      1.016714852
 H       1.260235115     -0.223141332     -0.867297899
 H      -1.439891931      0.036618344      0.830809029
 H      -1.028382487      0.086986611     -1.051916649
       6
 Time:   100.00, Trajectory:1
 C      -0.669619477     -0.010024225     -0.062828228
 C       0.672463448      0.004796648      0.069320990
 H       1.140900111      0.156105197      0.984718949
 H       1.291828178     -0.230954181     -0.864587715
 H      -1.421353942      0.031673746      0.830880003
 H      -1.044500299      0.106092461     -1.029695397
       6
 Time:   120.00, Trajectory:1
 C      -0.680613525     -0.011032301     -0.067038097
 C       0.679861284      0.004173804      0.074138213
 H       1.150394337      0.171289121      0.954850992
 H       1.321875300     -0.240392628     -0.856872543
 H      -1.398920563      0.023495844      0.825949802
 H      -1.063320486      0.128095937     -1.009900663
       6
 Time:   140.00, Trajectory:1
 C      -0.692221307     -0.011970069     -0.070656593
 C       0.687779956      0.003287773      0.078198264
 H       1.163538060      0.190316186      0.929956167
 H       1.349677049     -0.251282552     -0.843857623
 H      -1.373609622      0.012126269      0.816807520
 H      -1.085307584      0.153213966     -0.994177124
       6
 Time:   160.00, Trajectory:1
 C      -0.704039975     -0.012865355     -0.073639736
 C       0.695910124      0.002077895      0.081253045
 H       1.181293924      0.213867849      0.912294252
 H       1.374733001     -0.263525993     -0.825529665
 H      -1.346739378     -0.002400090      0.804684414
 H      -1.110727654      0.181694073     -0.983579718
       6
 Time:   180.00, Trajectory:1
 C      -0.715684666     -0.013737833     -0.076058617
 C       0.703990323      0.000499921      0.083179706
 H       1.204031263      0.242509266      0.902892372
 H       1.396737525     -0.277101523     -0.802128059
 H      -1.319918027     -0.020075933      0.791304193
 H      -1.139516959      0.213709456     -0.978292587
       6
 Time:   200.00, Trajectory:1
 C      -0.726804245     -0.014588702     -0.078105075
 C       0.711832534     -0.001454920      0.084009268
 H       1.231274575      0.276469415      0.901225157
 H       1.415581728     -0.292065035     -0.774121628
 H      -1.294967485     -0.040948628      0.778846466
 H      -1.171226618      0.249254038     -0.977571314
       6
 Time:   220.00, Trajectory:1
 C      -0.737093466     -0.015394561     -0.080060044
 C       0.719317380     -0.003748460      0.083908012
 H       1.261764104      0.315512417      0.905447803
 H       1.431361978     -0.308550439     -0.742187028
 H      -1.273736633     -0.065144831      0.769734205
 H      -1.205074752      0.288085446     -0.979941611
       6
 Time:   240.00, Trajectory:1
 C      -0.746306507     -0.016109259     -0.082227979
 C       0.726363259     -0.006297702      0.083123586
 H       1.293799250      0.358970957      0.913030566
 H       1.444390621     -0.326770057     -0.707182751
 H      -1.257792158     -0.092866804      0.766184410
 H      -1.240077071      0.329735777     -0.983550521
       6
 Time:   260.00, Trajectory:1
 C      -0.754272900     -0.016675087     -0.084856800
 C       0.732889602     -0.008986808      0.081926442
 H       1.325654619      0.405897067      0.921420600
 H       1.455198638     -0.347014022     -0.670109934
 H      -1.248062083     -0.124324508      0.769596402
 H      -1.275189940      0.373570545     -0.986513794
       6
 Time:   280.00, Trajectory:1
 C      -0.760907944     -0.017041042     -0.088075031
 C       0.738792940     -0.011680879      0.080567899
 H       1.355878190      0.455230502      0.928468251
 H       1.464513754     -0.369645526     -0.632047969
 H      -1.244598615     -0.159595739      0.780048783
 H      -1.309411635      0.418860159     -0.987154493
       6
 Time:   300.00, Trajectory:1
 C      -0.766207930     -0.017181362     -0.091874890
 C       0.743942806     -0.014236513      0.079257292
 H       1.383415944      0.505918564      0.932580888
 H       1.473193995     -0.395084797     -0.594052115
 H      -1.246604182     -0.198473935      0.796220389
 H      -1.341822624      0.464841026     -0.984108993
       6
 Time:   320.00, Trajectory:1
 C      -0.770230771     -0.017106393     -0.096145217
 C       0.748194455     -0.016508955      0.078151251
 H       1.407610253      0.556978843      0.932695799
 H       1.482105187     -0.423772638     -0.557012198
 H      -1.252701552     -0.240399233      0.815803499
 H      -1.371576448      0.510763563     -0.976330516
       6
 Time:   340.00, Trajectory:1
 C      -0.773073893     -0.016863305     -0.100730427
 C       0.751410903     -0.018357607      0.077349161
 H       1.428144198      0.607526043      0.928173344
 H       1.491952099     -0.456109131     -0.521492098
 H      -1.261276731     -0.284515720      0.836152730
 H      -1.397862059      0.555936117     -0.963029800
       6
 Time:   360.00, Trajectory:1
 C      -0.774858947     -0.016530441     -0.105486014
 C       0.753485064     -0.019651423      0.076893891
 H       1.444979954      0.656785558      0.918674720
 H       1.503104493     -0.492375017     -0.487595940
 H      -1.270732606     -0.329812643      0.854843311
 H      -1.419863621      0.599770854     -0.943587630
       6
 Time:   380.00, Trajectory:1
 C      -0.775718309     -0.016207396     -0.110312019
 C       0.754353065     -0.020277208      0.076779520
 H       1.458287259      0.704096838      0.904054836
 H       1.515475123     -0.532639331     -0.454926773
 H      -1.279614195     -0.375269567      0.869975527
 H      -1.436763627      0.641813688     -0.917484621
       6
 Time:   400.00, Trajectory:1
 C      -0.775765095     -0.015995283     -0.115152896
 C       0.753993311     -0.020157838      0.076964818
 H       1.468307492      0.748869209      0.884303409
 H       1.528489130     -0.576615464     -0.422718628
 H      -1.286679629     -0.419921387      0.880235833
 H      -1.447853975      0.681691479     -0.884334679
       6
 Time:   420.00, Trajectory:1
 C      -0.775055155     -0.015971396     -0.119968866
 C       0.752415924     -0.019274995      0.077386723
 H       1.475178910      0.790466697      0.859585809
 H       1.541175095     -0.623485460     -0.390158577
 H      -1.290974846     -0.462797386      0.884840835
 H      -1.452706778      0.718959240     -0.844053365
       6
 Time:   440.00, Trajectory:1
 C      -0.773590441     -0.016183017     -0.124716013
 C       0.749658166     -0.017669650      0.077972784
 H       1.478879034      0.828132882      0.830328213
 H       1.552369626     -0.671900448     -0.356695164
 H      -1.291843139     -0.502839582      0.883487215
 H      -1.451216617      0.753025560     -0.796972526
       6
 Time:   460.00, Trajectory:1
 C      -0.771357787     -0.016659561     -0.129348796
 C       0.745791096     -0.015421006      0.078654015
 H       1.479276593      0.861045389      0.797215352
 H       1.560931660     -0.720212172     -0.322147114
 H      -1.288867406     -0.538933920      0.876295508
 H      -1.443538955      0.783253917     -0.743797378
       6
 Time:   480.00, Trajectory:1
 C      -0.768357659     -0.017423716     -0.133825587
 C       0.740926240     -0.012625906      0.079374200
 H       1.476182128      0.888433180      0.761087829
 H       1.565875522     -0.766751710     -0.286647613
 H      -1.281824166     -0.570032493      0.863707220
 H      -1.430054872      0.809132900     -0.685501798
       6
 Time:   500.00, Trajectory:1
 C      -0.764608533     -0.018496898     -0.138108947
 C       0.735211617     -0.009386048      0.080092576
 H       1.469379773      0.909674795      0.722810604
 H       1.566421257     -0.810028188     -0.250520963
 H      -1.270666422     -0.595287179      0.846362570
 H      -1.411370032      0.830422341     -0.623226774
       6
 Time:   520.00, Trajectory:1
 C      -0.760136631     -0.019902011     -0.142164068
 C       0.728817809     -0.005801413      0.080781118
 H       1.458655212      0.924341480      0.683183367
 H       1.561997543     -0.848817241     -0.214171455
 H      -1.255514547     -0.614133739      0.825009953
 H      -1.388310761      0.847237009     -0.558197482
       6
 Time:   540.00, Trajectory:1
 C      -0.754965585     -0.021665105     -0.145960425
 C       0.721923105     -0.001967916      0.081419853
 H       1.443824726      0.932197521      0.642919944
 H       1.552229119     -0.882167908     -0.178022667
 H      -1.236642689     -0.626314800      0.800476447
 H      -1.361899813      0.860067864     -0.491657882
       6
 Time:   560.00, Trajectory:1
 C      -0.749114041     -0.023814836     -0.149478924
 C       0.714704230      0.002021900      0.081992952
 H       1.424765441      0.933191857      0.602675291
 H       1.536919717     -0.909372431     -0.142497658
 H      -1.214460668     -0.631868549      0.773689429
 H      -1.333305191      0.869750793     -0.424806409
       6
 Time:   580.00, Trajectory:1
 C      -0.742601353     -0.026376999     -0.152723763
 C       0.707332206      0.006075521      0.082486220
 H       1.401452744      0.927471829      0.563091331
 H       1.516035997     -0.929932878     -0.108017091
 H      -1.189498071     -0.631116118      0.745728385
 H      -1.303759340      0.877381333     -0.358723114
       6
 Time:   600.00, Trajectory:1
 C      -0.735457826     -0.029362268     -0.155735821
 C       0.699969240      0.010094645      0.082885082
 H       1.374013706      0.915435492      0.524844642
 H       1.489694691     -0.943539462     -0.074997904
 H      -1.162394706     -0.624661814      0.717887393
 H      -1.274449099      0.884163705     -0.294296274
       6
 Time:   620.00, Trajectory:1
 C      -0.727735324     -0.032748567     -0.158603373
 C       0.692762619      0.013966845      0.083171829
 H       1.342805615      0.897830066      0.488695389
 H       1.458158232     -0.950066160     -0.043847560
 H      -1.133895219     -0.613400404      0.691735552
 H      -1.246394622      0.891203608     -0.232175862
       6
 Time:   640.00, Trajectory:1
 C      -0.719514396     -0.036464122     -0.161465632
 C       0.685832976      0.017555214      0.083321428
 H       1.308521930      0.875894636      0.455539899
 H       1.421844783     -0.949587354     -0.014954664
 H      -1.104835269     -0.598506819      0.669154432
 H      -1.220352871      0.899292886     -0.172780220
       6
 Time:   660.00, Trajectory:1
 C      -0.710906090     -0.040380699     -0.164505528
 C       0.679257081      0.020688032      0.083296418
 H       1.272309630      0.851525022      0.426464595
 H       1.381358851     -0.942420718      0.011319353
 H      -1.076095129     -0.581367096      0.652314310
 H      -1.196783703      0.908761256     -0.116359952
       6
 Time:   680.00, Trajectory:1
 C      -0.702050057     -0.044325343     -0.167929734
 C       0.673049562      0.023154092      0.083043124
 H       1.235847203      0.827395905      0.402783743
 H       1.337545477     -0.929202486      0.034642787
 H      -1.048491889     -0.563405208      0.643533454
 H      -1.175893315      0.919453268     -0.063091666
       6
 Time:   700.00, Trajectory:1
 C      -0.693112703     -0.048111663     -0.171936607
 C       0.667153467      0.024715176      0.082493330
 H       1.201282716      0.806904045      0.386019417
 H       1.291564427     -0.910998421      0.054709684
 H      -1.022600195     -0.545792348      0.644977608
 H      -1.157734593      0.930831048     -0.013158398
       6
 Time:   720.00, Trajectory:1
 C      -0.684286459     -0.051580429     -0.176678191
 C       0.661452717      0.025151757      0.081576664
 H       1.170904179      0.793736176      0.377760260
 H       1.244970831     -0.889443735      0.071235214
 H      -0.998545980     -0.529108870      0.658235908
 H      -1.142322603      0.942146966      0.033215927
       6
 Time:   740.00, Trajectory:1
 C      -0.675785798     -0.054630769     -0.182230125
 C       0.655813032      0.024348940      0.080246189
 H       1.146508667      0.790954873      0.379354262
 H       1.199772042     -0.866879065      0.083962417
 H      -0.975880092     -0.513119641      0.683933562
 H      -1.129725900      0.952612265      0.075785982
       6
 Time:   760.00, Trajectory:1
 C      -0.667835156     -0.057226375     -0.188583827
 C       0.650137556      0.022393749      0.078510020
 H       1.128719904      0.799881392      0.391494480
 H       1.158400510     -0.846393548      0.092694978
 H      -0.953640784     -0.496817614      0.721581299
 H      -1.120106926      0.961507766      0.114343918
       6
 Time:   780.00, Trajectory:1
 C      -0.660653481     -0.059376379     -0.195660885
 C       0.644409454      0.019613550      0.076449772
 H       1.116737288      0.819483714      0.413900873
 H       1.123509177     -0.831609280      0.097362107
 H      -0.930623063     -0.478750014      0.769718042
 H      -1.113693577      0.968216023      0.148781331
       6
 Time:   800.00, Trajectory:1
 C      -0.654448436     -0.061104522     -0.203331264
 C       0.638713299      0.016500379      0.074208946
 H       1.108744095      0.846767976      0.445309613
 H       1.097516680     -0.826029871      0.098088816
 H      -0.905756471     -0.457487763      0.826207446
 H      -1.110681160      0.972185873      0.179090937
       6
 Time:   820.00, Trajectory:1
 C      -0.649422532     -0.062421180     -0.211418693
 C       0.633249932      0.013546572      0.071955562
 H       1.102631133      0.877847220      0.483786871
 H       1.081989655     -0.831996956      0.095202751
 H      -0.878431259     -0.432043353      0.888545969
 H      -1.111116835      0.972874893      0.205250962
       6
 Time:   840.00, Trajectory:1
 C      -0.645767154     -0.063306256     -0.219701008
 C       0.628332996      0.011084113      0.069840598
 H       1.096536932      0.908945254      0.527175504
 H       1.077181698     -0.849748713      0.089137581
 H      -0.848640609     -0.402079997      0.954196394
 H      -1.114866640      0.969735682      0.227044424
       6
 Time:   860.00, Trajectory:1
 C      -0.643623338     -0.063705660     -0.227924070
 C       0.624335405      0.009215760      0.067967912
 H       1.089048320      0.936939146      0.573431754
 H       1.082042324     -0.877257652      0.080317837
 H      -0.816940839     -0.367882960      1.020975256
 H      -1.121693135      0.962266782      0.243978036
       6
 Time:   880.00, Trajectory:1
 C      -0.643028242     -0.063539210     -0.235830071
 C       0.621596738      0.007856080      0.066378783
 H       1.079194566      0.959493704      0.620743113
 H       1.094663878     -0.910983716      0.069132250
 H      -0.784328199     -0.330206008      1.087399498
 H      -1.131350718      0.950080106      0.255369590
       6
 Time:   900.00, Trajectory:1
 C      -0.643883583     -0.062714990     -0.243187356
 C       0.620339478      0.006824986      0.065052059
 H       1.066381049      0.974984832      0.667495976
 H       1.112845832     -0.946964355      0.055969774
 H      -0.752076416     -0.290094976      1.152879353
 H      -1.143619741      0.932941081      0.260507450
       6
 Time:   920.00, Trajectory:1
 C      -0.645961507     -0.061147668     -0.249817303
 C       0.620625466      0.005926652      0.063922270
 H       1.050324768      0.982362777      0.712220796
 H       1.134512331     -0.981624353      0.041229512
 H      -0.721503608     -0.248689765      1.217723383
 H      -1.158299525      0.910790064      0.258795696
       6
 Time:   940.00, Trajectory:1
 C      -0.648942625     -0.058779233     -0.255615303
 C       0.622358146      0.004988998      0.062911113
 H       1.030999015      0.981023780      0.753586638
 H       1.157918393     -1.012123941      0.025281669
 H      -0.693689685     -0.206996533      1.282940522
 H      -1.175212528      0.883766058      0.249870440
       6
 Time:   960.00, Trajectory:1
 C      -0.652469555     -0.055597992     -0.260557130
 C       0.625322234      0.003874144      0.061958212
 H       1.008579643      0.970707872      0.790446070
 H       1.181698765     -1.036386296      0.008419931
 H      -0.669260940     -0.165694419      1.349859116
 H      -1.194248163      0.852245574      0.233690891
       6
 Time:   980.00, Trajectory:1
 C      -0.656196138     -0.051652242     -0.264685597
 C       0.629243096      0.002477683      0.061037567
 H       0.983394321      0.951417395      0.821899570
 H       1.204834904     -1.052989215     -0.009161344
 H      -0.648348433     -0.125054290      1.419670174
 H      -1.215442840      0.816907378      0.210596944
       6
 Time:   985.00, Trajectory:1
 C      -0.657113070     -0.050565907     -0.265604122
 C       0.630330397      0.002073446      0.060815147
 H       0.976737125      0.945217911      0.828831435
 H       1.210408410     -1.055800254     -0.013662453
 H      -0.643625847     -0.114971423      1.437667718
 H      -1.221126166      0.807649852      0.203859989
       6
 Time:   990.00, Trajectory:1
 C      -0.658020966     -0.049442960     -0.266478869
 C       0.631457072      0.001646518      0.060597136
 H       0.969944889      0.938469164      0.835388207
 H       1.215891159     -1.058064517     -0.018209976
 H      -0.639095473     -0.104908904      1.455877733
 H      -1.226972402      0.798248116      0.196753827
       6
 Time:   995.00, Trajectory:1
 C      -0.658919629     -0.048288994     -0.267311831
 C       0.632621136      0.001196909      0.060387233
 H       0.963031413      0.931167656      0.841575771
 H       1.221282312     -1.059770714     -0.022817304
 H      -0.634736316     -0.094843902      1.474267012
 H      -1.232994048      0.788738538      0.189298689
       6
 Time:   997.50, Trajectory:1
 C      -0.659376752     -0.047709027     -0.267715511
 C       0.633220068      0.000966015      0.060296320
 H       0.959556795      0.927305780      0.844548480
 H       1.223954791     -1.060408582     -0.025164852
 H      -0.632563886     -0.089784378      1.483414333
 H      -1.236066055      0.783989886      0.185461315
       6
 Time:  1000.00, Trajectory:1
 C      -0.659852719     -0.047133082     -0.268115049
 C       0.633831593      0.000734180      0.060227077
 H       0.956107621      0.923330583      0.847437884
 H       1.226612400     -1.060907296     -0.027531885
 H      -0.630324729     -0.084728253      1.492406217
 H      -1.239140345      0.779278350      0.181572440
       6
 Time:  1005.00, Trajectory:1
 C      -0.660867351     -0.045993846     -0.268906593
 C       0.635089070      0.000269401      0.060160065
 H       0.949318714      0.915097823      0.852938225
 H       1.231863513     -1.061498700     -0.032277604
 H      -0.625598702     -0.074695770      1.509865046
 H      -1.245242712      0.769976544      0.173661656
       6
 Time:  1010.00, Trajectory:1
 C      -0.661963525     -0.044871470     -0.269692013
 C       0.636388170     -0.000196982      0.060188564
 H       0.942696242      0.906536699      0.858045272
 H       1.237005565     -1.061554825     -0.036998155
 H      -0.620534370     -0.064822716      1.526624522
 H      -1.251261741      0.760848824      0.165598735
       6
 Time:  1015.00, Trajectory:1
 C      -0.663138795     -0.043767784     -0.270474039
 C       0.637726624     -0.000665279      0.060312282
 H       0.936253857      0.897672966      0.862753774
 H       1.242025023     -1.061076938     -0.041675899
 H      -0.615132619     -0.055128680      1.542685002
 H      -1.257198775      0.751915969      0.157407189
       6
 Time:  1020.00, Trajectory:1
 C      -0.664390836     -0.042685246     -0.271255271
 C       0.639102571     -0.001135742      0.060531085
 H       0.930004644      0.888528493      0.867062969
 H       1.246911109     -1.060066231     -0.046298444
 H      -0.609394600     -0.045625936      1.558043428
 H      -1.263060538      0.743202105      0.149111258
       6
 Time:  1040.00, Trajectory:1
 C      -0.670142995     -0.038593807     -0.274398127
 C       0.644963391     -0.003041423      0.062356146
 H       0.907069717      0.849354639      0.880320395
 H       1.265026866     -1.050714536     -0.064131912
 H      -0.583091261     -0.009624695      1.612410757
 H      -1.285848656      0.710793927      0.115133525
       6
 Time:  1060.00, Trajectory:1
 C      -0.676906967     -0.035069251     -0.277738108
 C       0.651267785     -0.004999473      0.065684441
 H       0.888271815      0.807484492      0.887495069
 H       1.280355668     -1.033163055     -0.080336771
 H      -0.551515216      0.022649901      1.655138155
 H      -1.308440661      0.684039932      0.081576548
       6
 Time:  1080.00, Trajectory:1
 C      -0.684465889     -0.032273974     -0.281439146
 C       0.657857108     -0.007031827      0.070472031
 H       0.874439870      0.764663580      0.889131387
 H       1.292533513     -1.008011483     -0.094395055
 H      -0.514798635      0.050717345      1.685978492
 H      -1.331867964      0.664486749      0.050119540
       6
 Time:  1100.00, Trajectory:1
 C      -0.692589558     -0.030310568     -0.285645735
 C       0.664539865     -0.009173720      0.076641276
 H       0.866378936      0.722991570      0.886056756
 H       1.301360998     -0.976200398     -0.105851446
 H      -0.473116692      0.074096186      1.704851761
 H      -1.357025517      0.653110692      0.022225428
       6
 Time:  1120.00, Trajectory:1
 C      -0.701064851     -0.029193817     -0.290470734
 C       0.671090394     -0.011473135      0.084078201
 H       0.864851172      0.684925429      0.879407876
 H       1.306868831     -0.939062246     -0.114351847
 H      -0.426679235      0.092315560      1.711902785
 H      -1.384345880      0.650011276     -0.001019433
       6
 Time:  1140.00, Trajectory:1
 C      -0.709713453     -0.028841329     -0.295991764
 C       0.677245393     -0.013981827      0.092634598
 H       0.870541717      0.653194063      0.870600095
 H       1.309408820     -0.898383574     -0.119695906
 H      -0.375717007      0.104947215      1.707568296
 H      -1.413615409      0.654306770     -0.018957504
       6
 Time:  1160.00, Trajectory:1
 C      -0.718385208     -0.029085364     -0.302255785
 C       0.682699026     -0.016737085      0.102137226
 H       0.883989392      0.630574260      0.861172120
 H       1.309753814     -0.856451750     -0.121895260
 H      -0.320466771      0.111661918      1.692684320
 H      -1.444040870      0.664271566     -0.031309478
       6
 Time:  1180.00, Trajectory:1
 C      -0.726924993     -0.029694848     -0.309284282
 C       0.687099559     -0.019739378      0.112399094
 H       0.905442562      0.619489394      0.852466233
 H       1.309170508     -0.816028427     -0.121225723
 H      -0.261174277      0.112327535      1.668705321
 H      -1.474532200      0.677608822     -0.038094582
       6
 Time:  1200.00, Trajectory:1
 C      -0.735105712     -0.030386516     -0.317060640
 C       0.690050327     -0.022943890      0.123199830
 H       0.934557813      0.621407188      0.845228900
 H       1.309408947     -0.780142450     -0.118278413
 H      -0.198200063      0.107222192      1.638254891
 H      -1.504100691      0.691664566     -0.039646665
       6
 Time:  1220.00, Trajectory:1
 C      -0.742520851     -0.030823326     -0.325436196
 C       0.691130383     -0.026283478      0.134166391
 H       0.969867223      0.635891264      0.839463751
 H       1.312595411     -0.751511779     -0.114171892
 H      -0.132480404      0.097524165      1.606244852
 H      -1.532295244      0.703564618     -0.037070054
