       6
 Time:     0.00, Trajectory:1
 C      -0.642628089      0.035608866     -0.064723669
 C       0.631016352     -0.043010998      0.061521618
 H       1.136050948      0.269341695      0.935917700
 H       1.553205077     -0.020105560     -0.677751699
 H      -1.241151370     -0.084229672      0.788799545
 H      -1.310351879     -0.076917501     -1.010247523
       6
 Time:    20.00, Trajectory:1
 C      -0.645030628      0.036352621     -0.065364632
 C       0.635311769     -0.045614144      0.060845598
 H       1.131727729      0.283657988      0.932079090
 H       1.544984676     -0.013280199     -0.674275480
 H      -1.261694244     -0.087151662      0.797896445
 H      -1.299979918     -0.072824474     -1.003178245
       6
 Time:    40.00, Trajectory:1
 C      -0.649130305      0.036941493     -0.066471579
 C       0.641523959     -0.048151244      0.059948485
 H       1.127672520      0.303032120      0.930792241
 H       1.531281578     -0.011475563     -0.669048393
 H      -1.283159531     -0.093916148      0.808022455
 H      -1.286106467     -0.063860017     -0.993195771
       6
 Time:    60.00, Trajectory:1
 C      -0.654790012      0.037339124     -0.067856038
 C       0.649424617     -0.050578508      0.058879552
 H       1.123890016      0.327195316      0.931914764
 H       1.512844372     -0.014763809     -0.662587964
 H      -1.304505928     -0.104143059      0.817899837
 H      -1.269431771     -0.050152462     -0.981215393
       6
 Time:    80.00, Trajectory:1
 C      -0.661784509      0.037506552     -0.069307016
 C       0.658708621     -0.052836591      0.057729129
 H       1.120309663      0.355741631      0.935005870
 H       1.490825423     -0.023194983     -0.655668900
 H      -1.324859317     -0.117467280      0.826421888
 H      -1.250953141     -0.031855530     -0.968530815
       6
 Time:   100.00, Trajectory:1
 C      -0.669815580      0.037404322     -0.070594484
 C       0.669003505     -0.054856531      0.056632286
 H       1.116816325      0.388130292      0.939359740
 H       1.466830632     -0.036771827     -0.649384610
 H      -1.343544953     -0.133536466      0.832684218
 H      -1.231945135     -0.009132135     -0.956819574
       6
 Time:   120.00, Trajectory:1
 C      -0.678537845      0.036991208     -0.071478682
 C       0.679885999     -0.056563965      0.055766018
 H       1.113292665      0.423706532      0.944073528
 H       1.442890026     -0.055453011     -0.645161800
 H      -1.360085540     -0.152009260      0.835977412
 H      -1.213863016      0.017892165     -0.948043775
       6
 Time:   140.00, Trajectory:1
 C      -0.687593092      0.036221541     -0.071732595
 C       0.690909548     -0.057881780      0.055335260
 H       1.109658195      0.461737007      0.948134797
 H       1.421281320     -0.079182239     -0.644661402
 H      -1.374183941     -0.172555252      0.835767174
 H      -1.198141068      0.049186697     -0.944179144
       6
 Time:   160.00, Trajectory:1
 C      -0.696648457      0.035044873     -0.071179727
 C       0.701646136     -0.058732545      0.055542881
 H       1.105892264      0.501452458      0.950510611
 H       1.404157023     -0.107921921     -0.649492861
 H      -1.385703981     -0.194857074      0.831678799
 H      -1.185905476      0.084841933     -0.946760992
       6
 Time:   180.00, Trajectory:1
 C      -0.705428610      0.033412190     -0.069737231
 C       0.711737634     -0.059043831      0.056544826
 H       1.102035782      0.542089465      0.950223735
 H       1.393028253     -0.141645975     -0.660742024
 H      -1.394656701     -0.218615467      0.823493213
 H      -1.177703634      0.125014998     -0.956372654
       6
 Time:   200.00, Trajectory:1
 C      -0.713729351      0.031289417     -0.067443118
 C       0.720938400     -0.058759449      0.058405328
 H       1.098174581      0.582925016      0.946407408
 H       1.388321353     -0.180248695     -0.678482087
 H      -1.401194729     -0.243558544      0.811154104
 H      -1.173397796      0.169785931     -0.972332539
       6
 Time:   220.00, Trajectory:1
 C      -0.721407004      0.028672665     -0.064450031
 C       0.729126460     -0.057854714      0.061077179
 H       1.094412215      0.623301530      0.938336406
 H       1.389278147     -0.223390299     -0.701562643
 H      -1.405614047     -0.269456118      0.794780837
 H      -1.172297790      0.218992796     -0.992786972
       6
 Time:   240.00, Trajectory:1
 C      -0.728351513      0.025597140     -0.060988651
 C       0.736277618     -0.056347917      0.064421171
 H       1.090840495      0.662644258      0.925437539
 H       1.394273146     -0.270377728     -0.727846787
 H      -1.408359578     -0.296138491      0.774679197
 H      -1.173455309      0.272144596     -1.015166777
       6
 Time:   260.00, Trajectory:1
 C      -0.734458482      0.022136412     -0.057321374
 C       0.742421291     -0.054301617      0.068252777
 H       1.087513151      0.700476702      0.907285748
 H       1.401335414     -0.320167089     -0.754756778
 H      -1.410028293     -0.323517197      0.751340733
 H      -1.175961973      0.328453363     -1.036753140
       6
 Time:   280.00, Trajectory:1
 C      -0.739611444      0.018395086     -0.053705717
 C       0.747603214     -0.051815352      0.072390430
 H       1.084424586      0.736439334      0.883589717
 H       1.408587903     -0.371477020     -0.779821866
 H      -1.411358800     -0.351602144      0.725418395
 H      -1.179142904      0.386946322     -1.055109402
       6
 Time:   300.00, Trajectory:1
 C      -0.743677074      0.014499581     -0.050373857
 C       0.751866713     -0.049016321      0.076688241
 H       1.081495953      0.770316129      0.854172809
 H       1.414471404     -0.422938044     -0.801027007
 H      -1.413197200     -0.380507323      0.697670725
 H      -1.182633807      0.446593407     -1.068295724
       6
 Time:   320.00, Trajectory:1
 C      -0.746511285      0.010589218     -0.047524289
 C       0.755249965     -0.046052412      0.081050850
 H       1.078571838      0.802063557      0.818947582
 H       1.417777198     -0.473213618     -0.816935069
 H      -1.416424880     -0.410433953      0.668866150
 H      -1.186376282      0.506405630     -1.074903993
       6
 Time:   340.00, Trajectory:1
 C      -0.747972717      0.006806686     -0.045317855
 C       0.757788067     -0.043085478      0.085433830
 H       1.075443833      0.831819790      0.777898172
 H       1.417584597     -0.521076036     -0.826654951
 H      -1.421841145     -0.441618332      0.639659187
 H      -1.190559441      0.565483376     -1.074000705
       6
 Time:   360.00, Trajectory:1
 C      -0.747940710      0.003285439     -0.043870833
 C       0.759506501     -0.040277698      0.089829653
 H       1.071927536      0.859847566      0.731110761
 H       1.413200207     -0.565444555     -0.829738594
 H      -1.430004757     -0.474227007      0.610476601
 H      -1.195500442      0.622994389     -1.065061198
       6
 Time:   380.00, Trajectory:1
 C      -0.746334683      0.000134253     -0.043243922
 C       0.760404006     -0.037770883      0.094241128
 H       1.067977870      0.886398329      0.678887378
 H       1.404151766     -0.605380221     -0.826087413
 H      -1.441076438     -0.508192289      0.581477789
 H      -1.201473018      0.678077015     -1.047950820
       6
 Time:   400.00, Trajectory:1
 C      -0.743131722     -0.002573739     -0.043438664
 C       0.760449143     -0.035676078      0.098661475
 H       1.063741765      0.911607620      0.621860305
 H       1.390192985     -0.640033656     -0.815924832
 H      -1.454746960     -0.543059035      0.552620153
 H      -1.208584780      0.729746143     -1.022935958
       6
 Time:   420.00, Trajectory:1
 C      -0.738381424     -0.004801830     -0.044409151
 C       0.759605731     -0.034079527      0.103076265
 H       1.059508263      0.935512151      0.560969125
 H       1.371266056     -0.668607663     -0.799797138
 H      -1.470289777     -0.577969249      0.523775023
 H      -1.216764173      0.776904314     -0.990658973
       6
 Time:   440.00, Trajectory:1
 C      -0.732215004     -0.006544318     -0.046078641
 C       0.757863131     -0.033046553      0.107474025
 H       1.055639066      0.958108493      0.497313181
 H       1.347463410     -0.690397014     -0.778530365
 H      -1.486687412     -0.611806546      0.494817989
 H      -1.225780526      0.818448772     -0.952052010
       6
 Time:   460.00, Trajectory:1
 C      -0.724840247     -0.007820031     -0.048351568
 C       0.755247784     -0.032613991      0.111851926
 H       1.052519621      0.979365936      0.431974118
 H       1.319031228     -0.704891824     -0.753142425
 H      -1.502777565     -0.643408702      0.465667749
 H      -1.235251650      0.853406099     -0.908210331
       6
 Time:   480.00, Trajectory:1
 C      -0.716519281     -0.008665867     -0.051121354
 C       0.751814713     -0.032777389      0.116216719
 H       1.050514481      0.999182346      0.365891631
 H       1.286402893     -0.711887491     -0.724769282
 H      -1.517389506     -0.671743803      0.436295717
 H      -1.244660974      0.881031266     -0.860269049
       6
 Time:   500.00, Trajectory:1
 C      -0.707538926     -0.009130098     -0.054277253
 C       0.747631633     -0.033481522      0.120586287
 H       1.049921676      1.017322948      0.299835948
 H       1.250232825     -0.711560903     -0.694661906
 H      -1.529454447     -0.696000097      0.406740619
 H      -1.253400452      0.900840730     -0.809329663
       6
 Time:   520.00, Trajectory:1
 C      -0.698186687     -0.009266317     -0.057710855
 C       0.742766820     -0.034617632      0.124995067
 H       1.050940902      1.033394927      0.234455595
 H       1.211416015     -0.704517026     -0.664260189
 H      -1.538079456     -0.715606169      0.377131944
 H      -1.260826973      0.912598886     -0.756444481
       6
 Time:   540.00, Trajectory:1
 C      -0.688736800     -0.009129517     -0.061320917
 C       0.737283042     -0.036026279      0.129503150
 H       1.053666598      1.046881565      0.170343524
 H       1.171091268     -0.691825962     -0.635307860
 H      -1.542584264     -0.730221198      0.347705771
 H      -1.266316403      0.916298386     -0.702634828
       6
 Time:   560.00, Trajectory:1
 C      -0.679443117     -0.008775119     -0.065015613
 C       0.731236194     -0.037504705      0.134206271
 H       1.058102944      1.057221339      0.108079381
 H       1.130616306     -0.675040817     -0.609956597
 H      -1.542510529     -0.739721110      0.318804465
 H      -1.269313551      0.912161696     -0.648921736
       6
 Time:   580.00, Trajectory:1
 C      -0.670533967     -0.008260891     -0.068712176
 C       0.724679144     -0.038820775      0.139240572
 H       1.064190057      1.063895755      0.048234870
 H       1.091480380     -0.656135447     -0.590783717
 H      -1.537614418     -0.744189708      0.290860357
 H      -1.269386035      0.900672611     -0.596358853
       6
 Time:   600.00, Trajectory:1
 C      -0.662205612     -0.007651665     -0.072334362
 C       0.717673276     -0.039739068      0.144772765
 H       1.071833416      1.066498497     -0.008647802
 H       1.055112350     -0.637267387     -0.580622449
 H      -1.527854418     -0.743915795      0.264370851
 H      -1.266291196      0.882636701     -0.546068037
       6
 Time:   620.00, Trajectory:1
 C      -0.654612659     -0.007026522     -0.075808796
 C       0.710307691     -0.040062265      0.150967427
 H       1.080933323      1.064772536     -0.062087771
 H       1.022579668     -0.620310996     -0.582120454
 H      -1.513383242     -0.739395226      0.239871840
 H      -1.260058024      0.859262344     -0.499273783
       6
 Time:   640.00, Trajectory:1
 C      -0.647855400     -0.006487361     -0.079062160
 C       0.702718177     -0.039677819      0.157936153
 H       1.091413950      1.058614546     -0.111695086
 H       0.994270705     -0.606276063     -0.597091116
 H      -1.494551184     -0.731337009      0.217916025
 H      -1.251074664      0.832243884     -0.457324337
       6
 Time:   660.00, Trajectory:1
 C      -0.641966499     -0.006165763     -0.082021877
 C       0.695091734     -0.038583419      0.165694359
 H       1.103249630      1.048049631     -0.157193469
 H       0.969739672     -0.594934813     -0.625964796
 H      -1.471923940     -0.720671884      0.199059816
 H      -1.240156052      0.803810449     -0.421677928
       6
 Time:   680.00, Trajectory:1
 C      -0.636903461     -0.006222034     -0.084622717
 C       0.687649268     -0.036868760      0.174156673
 H       1.116481316      1.033180274     -0.198434326
 H       0.947837627     -0.584946266     -0.667708897
 H      -1.446311528     -0.708560399      0.183856804
 H      -1.228544958      0.776679110     -0.393827652
       6
 Time:   700.00, Trajectory:1
 C      -0.632558638     -0.006827792     -0.086819916
 C       0.680617516     -0.034662371      0.183173246
 H       1.131208456      1.014114718     -0.235393047
 H       0.927065004     -0.574407787     -0.720259311
 H      -1.418790932     -0.696389221      0.172850423
 H      -1.217776922      0.753827425     -0.375144616
       6
 Time:   720.00, Trajectory:1
 C      -0.628797909     -0.008126347     -0.088605480
 C       0.674210480     -0.032077384      0.192574809
 H       1.147543903      0.990897790     -0.268124290
 H       0.905971694     -0.561482245     -0.781122186
 H      -1.390696668     -0.685737144      0.166559438
 H      -1.209357639      0.738029549     -0.366651509
       6
 Time:   740.00, Trajectory:1
 C      -0.625524316     -0.010178599     -0.090018948
 C       0.668627655     -0.029183624      0.202192517
 H       1.165540077      0.963486304     -0.296656032
 H       0.883479367     -0.544819229     -0.847794325
 H      -1.363546621     -0.678278774      0.165458865
 H      -1.204300741      0.731221537     -0.368797927
       6
 Time:   760.00, Trajectory:1
 C      -0.622734724     -0.012922942     -0.091141319
 C       0.664052257     -0.026009141      0.211848688
 H       1.185136645      0.931807813     -0.320850526
 H       0.859078778     -0.523715198     -0.917956787
 H      -1.338881300     -0.675593926      0.169961299
 H      -1.202732361      0.733949472     -0.381349012
       6
 Time:   780.00, Trajectory:1
 C      -0.620528964     -0.016181711     -0.092067298
 C       0.660625951     -0.022556084      0.221341491
 H       1.206184050      0.895878746     -0.340322852
 H       0.832893597     -0.498090096     -0.989614742
 H      -1.318019281     -0.678887251      0.180375013
 H      -1.203810036      0.745215300     -0.403434329
       6
 Time:   800.00, Trajectory:1
 C      -0.619064104     -0.019716542     -0.092863583
 C       0.658400980     -0.018814222      0.230445525
 H       1.228527677      0.855901788     -0.354484498
 H       0.805636499     -0.468391355     -1.061308905
 H      -1.301782053     -0.688700981      0.196798155
 H      -1.206012464      0.762822868     -0.433694656
       6
 Time:   820.00, Trajectory:1
 C      -0.618483879     -0.023297883     -0.093529792
 C       0.657296702     -0.014767641      0.238930989
 H       1.252073967      0.812293176     -0.362674503
 H       0.778481404     -0.435496453     -1.132364242
 H      -1.290293973     -0.704751114      0.218964876
 H      -1.207603092      0.784003833     -0.470447102
       6
 Time:   840.00, Trajectory:1
 C      -0.618853461     -0.026751826     -0.093982650
 C       0.657086522     -0.010400496      0.246597875
 H       1.276796256      0.765658296     -0.364309133
 H       0.752810370     -0.400590811     -1.203072166
 H      -1.282968769     -0.725974288      0.246142049
 H      -1.207022403      0.805997811     -0.511850056
       6
 Time:   860.00, Trajectory:1
 C      -0.620120820     -0.029974659     -0.094080698
 C       0.657428602     -0.005706946      0.253319482
 H       1.302714360      0.716741124     -0.359029251
 H       0.729804787     -0.364944969     -1.274648674
 H      -1.278703701     -0.750755986      0.277170441
 H      -1.203096643      0.826402234     -0.556064520
       6
 Time:   880.00, Trajectory:1
 C      -0.622127106     -0.032926383     -0.093682496
 C       0.657936920     -0.000702994      0.259071210
 H       1.329906768      0.666354998     -0.346831566
 H       0.710052416     -0.329612987     -1.348806139
 H      -1.276181236     -0.777221864      0.310640046
 H      -1.195083522      0.843295506     -0.601373504
       6
 Time:   885.00, Trajectory:1
 C      -0.622711571     -0.033622953     -0.093491260
 C       0.658034908      0.000589750      0.260367733
 H       1.336932661      0.653656054     -0.342766156
 H       0.705611148     -0.320930759     -1.367989103
 H      -1.275625583     -0.783809089      0.319159751
 H      -1.192386067      0.846745356     -0.612628773
       6
 Time:   890.00, Trajectory:1
 C      -0.623325885     -0.034303327     -0.093262543
 C       0.658116446      0.001898344      0.261609290
 H       1.344053321      0.640928237     -0.338304507
 H       0.701363070     -0.312315910     -1.387448565
 H      -1.275082241     -0.790357605      0.327717739
 H      -1.189408686      0.849868196     -0.623832219
       6
 Time:   895.00, Trajectory:1
 C      -0.623966762     -0.034967859     -0.092995706
 C       0.658176993      0.003222033      0.262797653
 H       1.351271727      0.628183094     -0.333457594
 H       0.697302164     -0.303776782     -1.407202682
 H      -1.274534155     -0.796842247      0.336290285
 H      -1.186150302      0.852648978     -0.634959964
       6
 Time:   897.50, Trajectory:1
 C      -0.624295813     -0.035294163     -0.092847741
 C       0.658197775      0.003889633      0.263372734
 H       1.354915783      0.621807593     -0.330893060
 H       0.695340377     -0.299544556     -1.417199974
 H      -1.274251561     -0.800053906      0.340569660
 H      -1.184415941      0.853908361     -0.640483134
       6
 Time:   898.12, Trajectory:1
 C      -0.624378844     -0.035374929     -0.092809413
 C       0.658202185      0.004057333      0.263514778
 H       1.355827236      0.620213859     -0.330237140
 H       0.694856139     -0.298495709     -1.419712765
 H      -1.274179175     -0.800855301      0.341635116
 H      -1.183972098      0.854211419     -0.641856190
       6
 Time:   898.75, Trajectory:1
 C      -0.624462321     -0.035455150     -0.092771281
 C       0.658207175      0.004225126      0.263656490
 H       1.356735852      0.618622342     -0.329576844
 H       0.694369885     -0.297452593     -1.422224484
 H      -1.274106035     -0.801657320      0.342697013
 H      -1.183525748      0.854510989     -0.643224794
       6
 Time:   900.00, Trajectory:1
 C      -0.624631149     -0.035613813     -0.092697145
 C       0.658220661      0.004559903      0.263939372
 H       1.358543700      0.615451231     -0.328247983
 H       0.693381156     -0.295377720     -1.427225997
 H      -1.273958532     -0.803261839      0.344812335
 H      -1.182628271      0.855098369     -0.645951674
       6
 Time:   905.00, Trajectory:1
 C      -0.625333803     -0.036225331     -0.092433438
 C       0.658325918      0.005883196      0.265064342
 H       1.365665274      0.602944881     -0.322842933
 H       0.689179456     -0.287183337     -1.446871324
 H      -1.273357007     -0.809666824      0.353182467
 H      -1.178980896      0.857274020     -0.656745656
       6
 Time:   910.00, Trajectory:1
 C      -0.626082907     -0.036801289     -0.092225804
 C       0.658515429      0.007175925      0.266180599
 H       1.372637247      0.590751173     -0.317324099
 H       0.684563957     -0.279119244     -1.465884682
 H      -1.272731400     -0.816009992      0.361411950
 H      -1.175247866      0.859145552     -0.667367298
       6
 Time:   915.00, Trajectory:1
 C      -0.626879777     -0.037342532     -0.092076007
 C       0.658789502      0.008435513      0.267290074
 H       1.379473958      0.578890121     -0.311711908
 H       0.679529047     -0.271179227     -1.484243806
 H      -1.272072830     -0.822262757      0.369488926
 H      -1.171434670      0.860699211     -0.677808604
       6
 Time:   920.00, Trajectory:1
 C      -0.627725338     -0.037849797     -0.091985557
 C       0.659148084      0.009659756      0.268394664
 H       1.386188461      0.567380461     -0.306025602
 H       0.674070885     -0.263361460     -1.501930039
 H      -1.271372792     -0.828399357      0.377399592
 H      -1.167547304      0.861923968     -0.688059835
       6
 Time:   940.00, Trajectory:1
 C      -0.631600697     -0.039545849     -0.092230890
 C       0.661424429      0.014183000      0.272782500
 H       1.411951969      0.525034068     -0.282725707
 H       0.647976315     -0.233312316     -1.565773086
 H      -1.268079922     -0.851545765      0.407236785
 H      -1.151320930      0.863441314     -0.727063902
       6
 Time:   960.00, Trajectory:1
 C      -0.636262010     -0.040746480     -0.093518683
 C       0.664993313      0.017997817      0.277226968
 H       1.436772065      0.489597164     -0.259657691
 H       0.614967677     -0.205342486     -1.617582982
 H      -1.263616025     -0.871172366      0.433294567
 H      -1.134487137      0.859164747     -0.762259918
       6
 Time:   980.00, Trajectory:1
 C      -0.641645538     -0.041479819     -0.095900006
 C       0.669759133      0.021027423      0.281812934
 H       1.461332474      0.461765029     -0.237761911
 H       0.575067587     -0.179689240     -1.656559658
 H      -1.257775678     -0.886371548      0.454787046
 H      -1.117575293      0.848987613     -0.793127209
       6
 Time:  1000.00, Trajectory:1
 C      -0.647640851     -0.041767835     -0.099411022
 C       0.675606035      0.023231466      0.286604603
 H       1.486054670      0.441875354     -0.217741674
 H       0.528391257     -0.156652122     -1.682112891
 H      -1.250485545     -0.896555008      0.471058452
 H      -1.101130360      0.833031298     -0.819233454
       6
 Time:  1020.00, Trajectory:1
 C      -0.654103730     -0.041630712     -0.104075915
 C       0.682416551      0.024606324      0.291647388
 H       1.510994380      0.429903579     -0.200036114
 H       0.475124888     -0.136570952     -1.693878093
 H      -1.241764582     -0.901405845      0.481588155
 H      -1.085696294      0.811628970     -0.840238223
       6
 Time:  1040.00, Trajectory:1
 C      -0.660864121     -0.041092490     -0.109906741
 C       0.690081556      0.025182982      0.296971850
 H       1.535818943      0.425494789     -0.184834775
 H       0.415504481     -0.119815678     -1.691732638
 H      -1.231700873     -0.900846125      0.485993609
 H      -1.071819538      0.785344197     -0.855914104
       6
 Time:  1060.00, Trajectory:1
 C      -0.667727589     -0.040187818     -0.116899463
 C       0.698499374      0.025024116      0.302599268
 H       1.559872231      0.428010747     -0.172127621
 H       0.349794681     -0.106781797     -1.675822253
 H      -1.220446832     -0.895026053      0.484039003
 H      -1.060069254      0.755024609     -0.866193391
       6
 Time:  1080.00, Trajectory:1
 C      -0.674471724     -0.038969478     -0.125027567
 C       0.707567895      0.024222687      0.308550467
 H       1.582296250      0.436568651     -0.161783503
 H       0.278259195     -0.097893424     -1.646605734
 H      -1.208227529     -0.884341918      0.475646822
 H      -1.051069712      0.721891257     -0.871238986
       6
 Time:  1085.00, Trajectory:1
 C      -0.676098596     -0.038628502     -0.127228442
 C       0.709919189      0.023943050      0.310097254
 H       1.587499053      0.439467038     -0.159552817
 H       0.259492094     -0.096396475     -1.637376094
 H      -1.205066894     -0.881024769      0.472550343
 H      -1.049359110      0.713442697     -0.871753784
       6
 Time:  1090.00, Trajectory:1
 C      -0.677697089     -0.038274733     -0.129495565
 C       0.712302013      0.023634905      0.311670005
 H       1.592524779      0.442642859     -0.157467559
 H       0.240370870     -0.095199445     -1.627407374
 H      -1.201867752     -0.877466278      0.469054183
 H      -1.047874736      0.704963859     -0.871979127
       6
 Time:  1095.00, Trajectory:1
 C      -0.679261453     -0.037910635     -0.131826683
 C       0.714713147      0.023303299      0.313273475
 H       1.597356246      0.446056711     -0.155538119
 H       0.220890636     -0.094314442     -1.616760730
 H      -1.198631226     -0.873689471      0.465154008
 H      -1.046623727      0.696498308     -0.871923270
       6
 Time:  1100.00, Trajectory:1
 C      -0.680780554     -0.037542056     -0.134210852
 C       0.717140435      0.022961054      0.314917740
 H       1.601980559      0.449611327     -0.153785833
 H       0.201051244     -0.093749327     -1.605649330
 H      -1.195348502     -0.869730659      0.460835923
 H      -1.045589609      0.688103745     -0.871590018
       6
 Time:  1105.00, Trajectory:1
 C      -0.682223842     -0.037186119     -0.136580384
 C       0.719519803      0.022634385      0.316578615
 H       1.606491233      0.453097877     -0.152078518
 H       0.181050107     -0.093386394     -1.594754016
 H      -1.192025163     -0.865576596      0.456164808
 H      -1.044655448      0.679748987     -0.871017654
       6
 Time:  1110.00, Trajectory:1
 C      -0.683582264     -0.036847475     -0.138909380
 C       0.721829514      0.022324058      0.318227059
 H       1.610942072      0.456503002     -0.150296318
 H       0.161004062     -0.093156965     -1.584185153
 H      -1.188695789     -0.861197571      0.451213888
 H      -1.043805090      0.671395600     -0.870251158
       6
 Time:  1115.00, Trajectory:1
 C      -0.684852889     -0.036527631     -0.141194887
 C       0.724068303      0.022030037      0.319855555
 H       1.615337177      0.459826448     -0.148404845
 H       0.140929002     -0.093053984     -1.573925400
 H      -1.185381485     -0.856600831      0.446009726
 H      -1.043057402      0.663062544     -0.869314093
       6
 Time:  1120.00, Trajectory:1
 C      -0.686033401     -0.036227893     -0.143437893
 C       0.726238183      0.021753198      0.321461837
 H       1.619671415      0.463063022     -0.146388871
 H       0.120819449     -0.093083872     -1.563948208
 H      -1.182099568     -0.851804421      0.440568212
 H      -1.042436413      0.654784669     -0.868225067
       6
 Time:  1140.00, Trajectory:1
 C      -0.689833135     -0.035242874     -0.152009260
 C       0.734260153      0.020830677      0.327660435
 H       1.636323316      0.475066343     -0.136991355
 H       0.039905818     -0.094650804     -1.526563560
 H      -1.169458756     -0.830852483      0.416554942
 H      -1.041482322      0.622646365     -0.862520719
       6
 Time:  1160.00, Trajectory:1
 C      -0.692045180     -0.034675671     -0.160188777
 C       0.741503638      0.020301049      0.333543048
 H       1.651343974      0.485060882     -0.125160215
 H      -0.042884837     -0.099681389     -1.490739221
 H      -1.158670683     -0.808989846      0.389715261
 H      -1.044877666      0.595368864     -0.855773685
       6
 Time:  1180.00, Trajectory:1
 C      -0.692596907     -0.034566056     -0.168269668
 C       0.748258332      0.020237836      0.339155461
 H       1.664294566      0.492743896     -0.110712285
 H      -0.128326050     -0.109524715     -1.453545653
 H      -1.150926275     -0.788523718      0.361033593
 H      -1.054567049      0.576506222     -0.849111764
       6
 Time:  1200.00, Trajectory:1
 C      -0.691438959     -0.034890389     -0.176505438
 C       0.754734239      0.020674811      0.344511860
 H       1.674876378      0.498019906     -0.093574061
 H      -0.216404725     -0.125319600     -1.412638060
 H      -1.147514049     -0.771857626      0.331811726
 H      -1.072088675      0.569007291     -0.843383263
       6
 Time:  1220.00, Trajectory:1
 C      -0.688554178     -0.035551984     -0.185095653
 C       0.761027678      0.021615000      0.349607543
 H       1.682973081      0.500917397     -0.073814589
 H      -0.306385669     -0.147828734     -1.366951683
 H      -1.149676915     -0.761122796      0.303512397
 H      -1.098180205      0.574540965     -0.838595409
       6
 Time:  1240.00, Trajectory:1
 C      -0.684011518     -0.036401665     -0.194192689
 C       0.767148165      0.023042397      0.354432919
 H       1.688687135      0.501550448     -0.051623909
 H      -0.397020901     -0.177520361     -1.316831443
 H      -1.158338101     -0.757708931      0.277420133
 H      -1.132555599      0.593253092     -0.833554137
       6
 Time:  1260.00, Trajectory:1
 C      -0.678020621     -0.037281187     -0.203858059
 C       0.773056198      0.024926279      0.358978435
 H       1.692350144      0.500127039     -0.027278091
 H      -0.486694860     -0.214711956     -1.264107665
 H      -1.173782207     -0.761824773      0.254343833
 H      -1.173887698      0.623931609     -0.826109177
       6
 Time:  1280.00, Trajectory:1
 C      -0.670932560     -0.038056475     -0.213981049
 C       0.778683134      0.027220836      0.363234370
 H       1.694515240      0.496961997     -0.001117379
 H      -0.573640306     -0.259712796     -1.212329641
 H      -1.195463948     -0.772356520      0.234561825
 H      -1.220005563      0.664397999     -0.813861254
       6
 Time:  1300.00, Trajectory:1
 C      -0.663170951     -0.038614296     -0.224248441
 C       0.783937646      0.029864537      0.367189348
 H       1.695936440      0.492475700      0.026469310
 H      -0.656393764     -0.312977753     -1.166625406
 H      -1.222079599     -0.787168454      0.218025708
 H      -1.268251105      0.711930630     -0.794867095
       6
 Time:  1320.00, Trajectory:1
 C      -0.655130316     -0.038846264     -0.234254982
 C       0.788709948      0.032781906      0.370830128
 H       1.697525714      0.487173755      0.055063194
 H      -0.734325128     -0.375068899     -1.132310405
 H      -1.251866536     -0.803686198      0.204653652
 H      -1.315877309      0.763616643     -0.768014790
